# Netscape HTTP Cookie File
# https://curl.haxx.se/rfc/cookie_spec.html
# This is a generated file! Do not edit.

.youtube.com	TRUE	/	FALSE	1798468319	HSID	ABMqlG7supUWJ4lU0
.youtube.com	TRUE	/	TRUE	1798468319	SSID	AV-YxoX7YibYMvHD6
.youtube.com	TRUE	/	FALSE	1798468319	APISID	k8cXBpJfMI0OSCFL/AQRzadZdvdgBKRC_O
.youtube.com	TRUE	/	TRUE	1798468319	SAPISID	lKsD-4sUFJV-ibzd/AD7thw5qMnnHKU6qq
.youtube.com	TRUE	/	TRUE	1798468319	__Secure-1PAPISID	lKsD-4sUFJV-ibzd/AD7thw5qMnnHKU6qq
.youtube.com	TRUE	/	TRUE	1798468319	__Secure-3PAPISID	lKsD-4sUFJV-ibzd/AD7thw5qMnnHKU6qq
.youtube.com	TRUE	/	FALSE	1798468319	SID	g.a000_gh_wwfmFcWvK05AAmsf1vBdKG6EXahvaK-hEpHVJ12MdKllTauJOiC_H7w-mPjer9HTxQACgYKAewSARQSFQHGX2MizxO4hZcU4nZfuJrAXUx1VBoVAUF8yKqp0e5lqIMnuqISuWxzEoIm0076
.youtube.com	TRUE	/	TRUE	1798468319	__Secure-1PSID	g.a000_gh_wwfmFcWvK05AAmsf1vBdKG6EXahvaK-hEpHVJ12MdKllZuveUhmZn2NShv9pBNr9zQACgYKAW8SARQSFQHGX2MihPIrpAZymFrGYAwKrE1hZRoVAUF8yKrliUFAEW4UB5cDO5GDmsgi0076
.youtube.com	TRUE	/	TRUE	1798468319	__Secure-3PSID	g.a000_gh_wwfmFcWvK05AAmsf1vBdKG6EXahvaK-hEpHVJ12MdKlliUdGhIhvllhUd9TR-KFsjQACgYKAewSARQSFQHGX2Mimg62tD-vn-wBwfSoQm57LhoVAUF8yKptsFXLjReAGeREps01WPAo0076
.youtube.com	TRUE	/	TRUE	1798638503	PREF	f4=4000000&f6=40000000&tz=Asia.Bangkok&f7=100
.youtube.com	TRUE	/	TRUE	1798638366	__Secure-1PSIDTS	sidts-CjUByojQU0oZ1OFkI4JXImrAF2zEGfWIJteKYMwVcv-P72fVQ9-1DsaG8rUvA5tsnQ_UcUjG4RAA
.youtube.com	TRUE	/	TRUE	1798638366	__Secure-3PSIDTS	sidts-CjUByojQU0oZ1OFkI4JXImrAF2zEGfWIJteKYMwVcv-P72fVQ9-1DsaG8rUvA5tsnQ_UcUjG4RAA
.youtube.com	TRUE	/	TRUE	1798638414	LOGIN_INFO	AFmmF2swRAIgKOxBOvwp3iMsc8E-8jxEAEf5GvyIEmTl9erHA-EgiG0CIEzX51L3niTOAU93MNBaPHidrHyB20ItiLI6N_w4Dw48:QUQ3MjNmeUlaQS1kZXVrYVdiOU5MN1NQNVkyMFVKV25BRTR6X3hrV1BxUE5jaEpzem5iNmgzZmVhVi1MYnJoLWVPdjJhd3VmVXdrbTFkQjJvVGx2TmJNVWZzTzhvMEJncXB2ai1WRHhLNTROMHlkUkJYTk9fN0ZnejUyYjdfY1hUMlRJSHNCQXBKSWZzX1JiLVpuQ0J2Q2ppamdoX2FfeEVn
.youtube.com	TRUE	/	FALSE	1798638508	SIDCC	AKEyXzUDVGphGFujHFLw73PVBOb8xfzwiYfDiq20BZzHAT59WMAHLEsTclGZktiTpJCupdmt
.youtube.com	TRUE	/	TRUE	1798638508	__Secure-1PSIDCC	AKEyXzXBB-Xi1sHPuj7UexgtciR3dPQIXenaPJSZyMaQoTn8jmaVpv_BPYe44Q3TtlB04w_x
.youtube.com	TRUE	/	TRUE	1798638508	__Secure-3PSIDCC	AKEyXzUrZspQH7znspoqiKkZfRt18z5EnNG7TFlrIBoP0EJ6LyddJk3CFX-5hmLnKZb6qnfx
.youtube.com	TRUE	/	FALSE	1783086526	ST-3opvp5	session_logininfo=AFmmF2swRAIgKOxBOvwp3iMsc8E-8jxEAEf5GvyIEmTl9erHA-EgiG0CIEzX51L3niTOAU93MNBaPHidrHyB20ItiLI6N_w4Dw48%3AQUQ3MjNmeUlaQS1kZXVrYVdiOU5MN1NQNVkyMFVKV25BRTR6X3hrV1BxUE5jaEpzem5iNmgzZmVhVi1MYnJoLWVPdjJhd3VmVXdrbTFkQjJvVGx2TmJNVWZzTzhvMEJncXB2ai1WRHhLNTROMHlkUkJYTk9fN0ZnejUyYjdfY1hUMlRJSHNCQXBKSWZzX1JiLVpuQ0J2Q2ppamdoX2FfeEVn
.youtube.com	TRUE	/	TRUE	1798638501	VISITOR_INFO1_LIVE	e7HJWp0aVw8
.youtube.com	TRUE	/	TRUE	1798638501	VISITOR_PRIVACY_METADATA	CgJWThIEGgAgSA%3D%3D
.youtube.com	TRUE	/	TRUE	1798555412	__Secure-YNID	19.YT=YvO83DagRZRi111eChc-scLj0lmxw-miZ7I4ugLOxHyRQcqmDhEBD0FS0z6UTq7YP6VuDhvxtm-cnIXrI0JffGoFSXOHkGosrrygj-99hp6pdAarmKNa2vfQmmAkCmTl1JFE2plgELqCPqiVAFT9xc5CwIpmTDQ7ITsJhD7pUE6ORG7weI96q38aNGqlrBw4yZKKWKyMMByB0R3U_yIV8TzZ3t4tmko1DFLSgjTzi44PMwT48oT2HrTwANIUpV85uXRvS9dgZt5IPcadGIA8eyF0e5TG_1akS2_5-OCQS8V4PKT-avRU4MNgvORAXW8x3mtWwnzFX6z9Mu0rJiZkwg
.youtube.com	TRUE	/	TRUE	1798555412	__Secure-ROLLOUT_TOKEN	CK7s35SOupHmKhDe4Kbt2LGVAxio5bKonbSVAw%3D%3D
.youtube.com	TRUE	/	TRUE	0	YSC	JgWS98pc9RI
